21

O 3.7320   -0.0600    0.0000
O 6.3301    1.4400    0.0000
O 4.5981    1.4400    0.0000
O 2.8660   -1.5600    0.0000
C 4.5981   -0.5600    0.0000
C 5.4641   -0.0600    0.0000
C 4.5981   -1.5600    0.0000
C 6.3301   -0.5600    0.0000
C 5.4641   -2.0600    0.0000
C 6.3301   -1.5600    0.0000
C 5.4641    0.9400    0.0000
C 2.8660   -0.5600    0.0000
C 2.0000   -0.0600    0.0000
H 4.0611   -1.8700    0.0000
H 6.8671   -0.2500    0.0000
H 5.4641   -2.6800    0.0000
H 6.8671   -1.8700    0.0000
H 2.3100    0.4769    0.0000
H 1.4631    0.2500    0.0000
H 1.6900   -0.5969    0.0000
H 6.3301    2.0600    0.0000
