260
Generated with Spartan
  H          -9.30432943       1.33818177      -5.34869910
  H           5.76597947      -1.75617301      -5.93436240
  H          -0.10661809      11.29326910       0.44172297
  H          -5.25231450       7.49394444      -7.41064163
  H           0.01974462      -8.37752227       5.46284357
  H           2.91388295      -4.07806827      -5.62036239
  H          -6.26478570      -7.65962196       3.85615222
  H          -9.93464975      -2.23385605       0.48115218
  O          -0.85472248      -8.16909931       5.13173760
  C          -1.66402243      -4.64309881       3.85253759
  C          -1.59862242      -5.89689873       2.98693759
  C          -2.70272241      -6.66909883       3.70903760
  C          -2.47632251      -6.37099884       5.19103755
  C          -1.77152238      -7.45549915       5.83643759
  O          -1.73642240      -5.11629865       5.18833758
  H          -2.55502234      -4.06999872       3.59563760
  H          -0.64922241      -6.41769884       3.11203761
  H          -1.90952239      -5.69019888       1.96293760
  H          -2.70342241      -7.74759910       3.55113761
  H          -3.42982254      -6.13679884       5.66453756
  H          -2.50942240      -8.14959858       6.38463749
  H          -1.22362242      -7.00409887       6.80953754
  O          -3.95981656      -6.13191507       3.31813760
  H           3.25217761       6.08740093       5.37443758
  N           0.09157756       0.18630113       3.85283759
  C          -1.13002239      -0.32639883       3.99033759
  N          -1.50832246      -1.58569882       3.97973759
  C          -0.45002244      -2.40259884       3.79953759
  C           0.85347756      -2.02689884       3.64453759
  C           1.13037755      -0.65069888       3.67433759
  N           2.36277761      -0.14059887       3.53523759
  N           1.66437759      -3.14169882       3.48283760
  C           0.83937754      -4.14059875       3.54423759
  N          -0.46152244      -3.77099893       3.73493760
  H          -1.86342249       0.34100111       4.12003760
  H           2.50037756       0.84950112       3.56483759
  H           3.14417758      -0.75019882       3.40193759
  H           1.12907757      -5.09389875       3.45953761
  P           0.60577755       9.91840126       1.98813761
  O           1.58417751       9.85690071       3.09683759
  O           0.55419933      11.35625751       1.13245943
  H           3.97117748       4.71110108       4.50463761
  O          -0.85472248       9.57030155       2.54113759
  C          -1.66402243       6.04430105       3.82033759
  C          -1.59862242       7.29810097       4.68593759
  C          -2.70272241       8.07030108       3.96383759
  C          -2.47632251       7.77220108       2.48183764
  C          -1.77152238       8.85670139       1.83643759
  O          -1.73642240       6.51750090       2.48453761
  H          -2.55502234       5.47120096       4.07723759
  H          -0.64922241       7.81890108       4.56083758
  H          -1.90952239       7.09140112       5.70993758
  H          -2.70342241       9.14880135       4.12173758
  H          -3.42982254       7.53800108       2.00833763
  H          -2.50942240       9.55080082       1.28823770
  H          -1.22362242       8.40530111       0.86333765
  O          -3.95981656       7.53311732       4.35473759
  H           3.48627748       6.17260124       3.61213760
  N          -0.46152244       5.17220118       3.93793759
  C          -0.66122244       3.81600120       3.84583759
  O          -1.76082240       3.31810119       3.67563760
  N           0.47557755       3.04000117       3.95933760
  C           1.76327755       3.49730112       4.15253760
  O           2.70357766       2.70440104       4.23913760
  C           1.87197759       4.93470099       4.23653759
  C           0.78267755       5.71290114       4.12943761
  C           3.23867764       5.51620104       4.44623757
  H           0.35367756       2.04950108       3.89523760
  H           0.88157757       6.70610096       4.19063760
  P          -4.88031848      -6.96606617       2.30973757
  O          -4.05262716      -7.49140025       1.20103760
  O          -5.76719683      -8.09899939       3.16541576
  H          -2.44479445      -4.50414611       0.08453761
  O          -5.85727995      -5.82598721       1.75673760
  C          -4.43948626      -2.49769831       0.47753759
  C          -5.12354165      -3.55048491      -0.38806241
  C          -6.47066514      -3.52623423       0.33403760
  C          -6.11228499      -3.41814078       1.81603755
  C          -6.17954300      -4.70979109       2.46143759
  O          -4.77619896      -2.83796939       1.81333758
  H          -4.82346055      -1.51033399       0.22063760
  H          -4.66157953      -4.52986437      -0.26296239
  H          -5.25356989      -3.20051880      -1.41206240
  H          -7.10515800      -4.39834783       0.17613761
  H          -6.74602342      -2.66821575       2.28953756
  H          -7.18449806      -4.83760257       3.00963749
  H          -5.47095619      -4.66664811       3.43453754
  O          -7.17192697      -2.35274203      -0.05686240
  H           5.84503262       3.29378846       1.99943758
  N          -0.18052597       0.37745253       0.47783759
  C          -1.47017857       0.68070799       0.61533759
  N          -2.51642772      -0.11572791       0.60473759
  C          -2.14040680      -1.39866704       0.42453759
  C          -0.86502223      -1.86089744       0.26953759
  C           0.16790461      -0.91028601       0.29933759
  N           1.46476646      -1.22199302       0.16023759
  N          -0.86425331      -3.23942464       0.10783760
  C          -2.11883102      -3.56262880       0.16923759
  N          -2.95403589      -2.49896645       0.35993760
  H          -1.67122388       1.65172765       0.74503760
  H           2.15805333      -0.50186451       0.18983759
  H           1.73861845      -2.17446511       0.02693759
  P           5.95585548       7.94864776      -1.38686239
  O           6.71124857       7.32380370      -0.27816241
  O           6.75927853       9.14221481      -2.24254057
  H           5.61774697       1.75772097       1.12963761
  O           4.56967826       8.52548956      -0.83386241
  C           1.84240976       6.14858981       0.44533759
  C           2.63228458       7.12449409       1.31093759
  C           2.19293676       8.39819079       0.58883759
  C           2.20087934       8.02394831      -0.89316236
  C           3.40852791       8.48705637      -1.53856241
  O           2.06197684       6.57397216      -0.89046239
  H           0.78471591       6.20865870       0.70223759
  H           3.70648394       6.98778691       1.18583758
  H           2.25926609       7.14001282       2.33493758
  H           2.82629700       9.27112728       0.74673758
  H           1.29182230       8.39492978      -1.36666237
  H           3.21953566       9.48232135      -2.08676230
  H           3.58646187       7.79981835      -2.51166235
  O           0.86017754       8.70250140       0.97973759
  H           6.08450287       3.22511651       0.23713760
  N           2.30264524       4.73623443       0.56293759
  C           1.34393020       3.75642631       0.47083759
  O           0.16167687       3.99994538       0.30063760
  N           1.80749934       2.46043484       0.58433760
  C           3.11806469       2.07350720       0.77753759
  O           3.41272848       0.87934302       0.86413760
  C           4.05088731       3.17249584       0.86153759
  C           3.62703964       4.44234748       0.75443761
  C           5.49836803       2.83961313       1.07123758
  H           1.12667883       1.73075445       0.52023759
  H           4.29083965       5.18773104       0.81563760
  P          -8.40693038      -2.48652699      -1.06526243
  O          -8.04609767      -3.39803594      -2.17396240
  O          -9.79035148      -2.88179521      -0.20958424
  H          -4.98946976      -1.92635693      -3.29046239
  O          -8.52718722      -0.98994019      -1.61826240
  C          -5.42384890       0.86934387      -2.89746241
  C          -6.59607377       0.41969929      -3.76306241
  C          -7.67166537       1.23113782      -3.04096240
  C          -7.31819401       1.10793669      -1.55896245
  C          -8.13181989       0.10250290      -0.91356241
  O          -5.89626152       0.79197354      -1.56166242
  H          -5.15413244       1.89383281      -3.15436240
  H          -6.79800337      -0.64416986      -3.63796239
  H          -6.49556391       0.77925650      -4.78706240
  H          -8.69759639       0.89852865      -3.19886239
  H          -7.39010429       2.08714089      -1.08546244
  H          -9.01997131       0.58979901      -0.36536251
  H          -7.53320231      -0.27909057       0.05953754
  O          -7.54923671       2.59270431      -3.43186240
  H           6.30065216      -0.49033344      -1.37556242
  N          -0.28830638       0.69203571      -2.89716241
  C          -1.15340817       1.69541331      -2.75966241
  N          -2.46797478       1.66605296      -2.77026241
  C          -2.91786017       0.40711384      -2.95046241
  C          -2.15774459      -0.71649064      -3.10546241
  C          -0.76333385      -0.55456901      -3.07566241
  N           0.10263265      -1.56902155      -3.21476241
  N          -2.96740048      -1.83219454      -3.26716240
  C          -4.17234981      -1.35624992      -3.20576241
  N          -4.22283970      -0.00480790      -3.01506240
  H          -0.74530620       2.59915618      -2.62996240
  H           1.08679442      -1.39392915      -3.18516241
  H          -0.23566549      -2.50055382      -3.34806241
  P           9.12636740       3.21038680      -4.76186239
  O           9.40219200       2.13637129      -3.50779400
  O          10.32125944       3.64657743      -5.51836239
  H           5.21389639      -1.59944299      -2.24536239
  O           8.34398557       4.49183614      -4.20886241
  C           4.74047238       4.17193205      -2.92966241
  C           5.95311668       4.49717844      -2.06406241
  C           6.34633696       5.78586288      -2.78616241
  C           6.13278843       5.47842582      -4.26816236
  C           7.38200474       5.14325009      -4.91356241
  O           5.16813936       4.38701531      -4.26546239
  H           3.92008769       4.84222566      -2.67276241
  H           6.74180775       3.75518146      -2.18916242
  H           5.66046006       4.72898811      -1.04006242
  H           7.37183536       6.11980353      -2.62826242
  H           5.61540328       6.31288646      -4.74166237
  H           7.81410888       6.05952323      -5.46176230
  H           7.12200796       4.48267590      -5.88666235
  O           5.44698139       6.81543155      -2.39526241
  H           6.45402331      -0.68664729      -3.13786240
  N           4.28264904       2.75879292      -2.81206241
  C           2.93111552       2.52963007      -2.90416241
  O           2.11778940       3.42155221      -3.07436240
  N           2.54438616       1.20867183      -2.79066240
  C           3.37722544       0.12530981      -2.59746240
  O           2.91370136      -1.01398833      -2.51086240
  C           4.77786410       0.46611092      -2.51346241
  C           5.18136420       1.74257389      -2.62056239
  C           5.75323706      -0.65400467      -2.30376242
  H           1.56469542       1.01852425      -2.85476240
  H           6.15651516       1.95543001      -2.55936240
  P          -8.62701228       3.21038680      -4.44026243
  O          -8.90283688       2.13637129      -5.69433081
  O          -9.82190432       3.64657743      -3.68376242
  H          -5.53296886       1.65484094      -6.66546239
  O          -7.84463045       4.49183614      -4.99326240
  C          -4.24111727       4.17193205      -6.27246241
  C          -5.45376156       4.49717844      -7.13806241
  C          -5.84698184       5.78586288      -6.41596240
  C          -5.63343332       5.47842582      -4.93396245
  C          -6.88264962       5.14325009      -4.28856241
  O          -4.66878424       4.38701531      -4.93666242
  H          -3.42073258       4.84222566      -6.52936240
  H          -6.24245264       3.75518146      -7.01296239
  H          -5.16110495       4.72898811      -8.16206240
  H          -6.87248024       6.11980353      -6.57386239
  H          -5.11604816       6.31288646      -4.46046244
  H          -7.31475376       6.05952323      -3.74036251
  H          -6.62265285       4.48267590      -3.31546246
  O          -4.94762627       6.81543155      -6.80686240
  H           4.44500508      -3.81955881      -4.75056242
  N          -0.19059521       1.00989059      -6.27216241
  C          -0.30070671       2.33013418      -6.13466241
  N          -1.38147102       3.07906403      -6.14526241
  C          -2.48542179       2.32499689      -6.32546240
  C          -2.53091351       0.96919704      -6.48046241
  C          -1.30763638       0.28058032      -6.45066241
  N          -1.20333500      -1.04913136      -6.58976241
  N          -3.84173319       0.54247742      -6.64216240
  C          -4.53680445       1.63577614      -6.58076240
  N          -3.78329393       2.75879292      -6.39006240
  H           0.56066145       2.82140121      -6.00496240
  H          -0.30421467      -1.48595441      -6.56016241
  H          -2.02456488      -1.60391014      -6.72306242
  H           8.95453915      -1.88601407      -7.91496839
  H          -4.51096682       8.03256506       4.95851681
  H           7.55211839       8.77486449      -2.63525249
  H           9.99026186       2.53794594      -2.86695425
  O           9.02654233      -0.98994019      -7.58386241
  C           5.92320402       0.86934387      -6.30466241
  C           7.09542888       0.41969929      -5.43906241
  C           8.17102049       1.23113782      -6.16116241
  C           7.81754913       1.10793669      -7.64316236
  C           8.63117500       0.10250290      -8.28856241
  O           6.39561663       0.79197354      -7.64046239
  H           5.65348756       1.89383281      -6.04776241
  H           7.29735849      -0.64416986      -5.56416242
  H           6.99491902       0.77925650      -4.41506242
  H           9.19695151       0.89852865      -6.00326242
  H           7.88945941       2.08714089      -8.11666237
  H           9.51932643       0.58979901      -8.83676230
  H           8.03255742      -0.27909057      -9.26166235
  O           8.04859183       2.59270431      -5.77026241
  H           4.45369455      -4.06852936      -6.51286240
  N           4.72219482      -0.00480790      -6.18706241
  C           3.49408268       0.60420693      -6.27916241
  O           3.36034671       1.80384820      -6.44936240
  N           2.40477229      -0.23715691      -6.16566240
  C           2.44176920      -1.60314584      -5.97246240
  O           1.39710769      -2.25240478      -5.88586240
  C           3.77522755      -2.15070671      -5.88846241
  C           4.85195209      -1.35519788      -5.99556239
  C           3.90593342      -3.63020910      -5.67876243
  H           1.50041989       0.18485823      -6.22976240
