168

N  -4.092316  -1.000975  -0.370529
C  -4.323298  -0.263368  -1.612788
C  -3.205279  0.755290  -1.724502
C  -4.333065  -1.195831  -2.804809
C  -5.534893  -2.195586  -2.747894
C  -4.391021  -0.411072  -4.124619
O  -2.022551  0.513260  -1.614742
O  -3.685654  1.972297  -2.032800
C  -2.674446  3.003316  -2.308876
C  -2.061835  3.479071  -0.971537
C  -3.443134  4.164203  -2.942180
O  -0.982616  4.138519  -1.109289
N  -2.562361  3.191384  0.172976
C  -1.922153  3.625377  1.414867
C  -0.521384  3.059577  1.425755
C  -2.660285  3.195460  2.693552
C  -4.031723  3.921459  2.671174
C  -1.882265  3.476688  3.916073
O  -0.237963  1.915325  1.170709
O  0.405568  3.987667  1.716328
C  1.781787  3.582552  1.870413
C  2.481074  3.382195  0.575318
C  2.480996  4.611227  2.746627
C  2.470890  5.974202  2.063195
C  1.863565  4.691095  4.116433
O  3.676679  3.042497  0.627604
N  1.882065  3.634190  -0.570600
C  2.598479  3.416843  -1.822129
C  3.040290  1.970656  -1.862391
C  1.746343  3.771275  -3.063258
C  1.427287  5.251532  -3.043648
C  2.444655  3.420207  -4.345496
O  2.308863  0.995380  -1.690734
O  4.353206  1.844014  -2.141135
C  4.912975  0.501695  -2.282755
C  4.866954  -0.251241  -0.969886
C  6.363862  0.653789  -2.723359
O  4.889152  -1.491995  -0.988352
N  4.852304  0.411828  0.187274
C  4.863721  -0.320530  1.453267
C  3.640496  -1.203917  1.497502
C  4.913635  0.624865  2.635648
C  6.173744  1.508032  2.600330
C  4.932395  -0.156748  3.950794
O  2.510720  -0.842020  1.236281
O  3.945608  -2.457328  1.878505
C  2.828097  -3.372211  2.031960
C  2.445551  -4.040763  0.771740
C  3.254346  -4.422058  3.076046
C  4.485963  -5.179990  2.732181
C  3.328906  -3.808486  4.458682
O  1.510141  -4.859848  0.766457
N  3.020005  -3.732477  -0.410699
C  2.468904  -4.259053  -1.664600
C  1.005575  -3.799167  -1.749489
C  3.268214  -3.838849  -2.880780
C  4.693123  -4.426191  -2.823146
C  2.559891  -4.254352  -4.172416
O  0.635499  -2.673457  -1.581456
O  0.196730  -4.821967  -2.053653
C  -1.207969  -4.498197  -2.246260
C  -1.919179  -4.182296  -0.920514
C  -1.832879  -5.699367  -2.974726
O  -3.059153  -3.717116  -0.961162
N  -1.303471  -4.547234  0.218128
C  -1.982414  -4.214913  1.486175
C  -2.200782  -2.712629  1.511514
C  -1.134918  -4.689135  2.671762
C  -0.944827  -6.191286  2.623437
C  -1.829816  -4.316462  3.967327
O  -1.385866  -1.900600  1.279362
O  -3.460876  -2.442907  1.878543
C  -3.804869  -1.044508  2.117691
C  -4.050817  -0.299492  0.783208
C  -5.016031  -1.022831  3.027983
C  -6.211473  -1.582777  2.357053
C  -5.252923  0.363926  3.607945
O  -4.233373  0.913002  0.812934
H  -4.825052  -1.677193  -0.281154
H  -5.217026  0.186571  -1.599372
H  -3.479308  -1.715455  -2.769455
H  -5.508697  -2.792601  -3.549257
H  -6.393354  -1.681530  -2.740600
H  -5.468672  -2.745980  -1.915801
H  -4.394290  -1.049299  -4.894845
H  -3.590140  0.186846  -4.194563
H  -5.225516  0.143589  -4.147272
H  -1.941915  2.666583  -2.901546
H  -2.806324  4.905979  -3.158884
H  -4.135677  4.492828  -2.303388
H  -3.887482  3.852542  -3.781836
H  -3.485062  3.580046  0.182699
H  -1.927597  4.624579  1.428033
H  -2.790440  2.201843  2.715678
H  -4.555076  3.671645  3.487594
H  -4.539107  3.649591  1.856395
H  -3.884359  4.909505  2.658473
H  -2.397552  3.181021  4.719518
H  -1.703444  4.460941  3.979504
H  -1.011857  2.981721  3.879574
H  1.807192  2.684489  2.310092
H  3.430162  4.320142  2.868487
H  2.930026  6.643402  2.642400
H  1.526351  6.263032  1.907788
H  2.948100  5.912261  1.184104
H  2.346361  5.375005  4.664527
H  1.934535  3.796949  4.566903
H  0.900706  4.946579  4.034185
H  1.064858  3.062686  -0.602928
H  3.389388  4.028458  -1.850492
H  0.906884  3.231889  -3.020692
H  0.875632  5.481426  -3.847705
H  2.276787  5.774253  -3.061772
H  0.915762  5.470666  -2.216102
H  1.859529  3.668329  -5.120102
H  2.629183  2.440334  -4.368647
H  3.304846  3.923639  -4.404726
H  4.379382  -0.016050  -2.953946
H  6.778208  -0.252132  -2.830428
H  6.872358  1.169804  -2.034528
H  6.401161  1.139812  -3.594077
H  5.654846  1.007647  0.191146
H  5.688734  -0.885157  1.507712
H  4.098100  1.195862  2.574451
H  6.173595  2.119258  3.394792
H  6.176517  2.055384  1.762697
H  6.990721  0.931248  2.624915
H  4.963944  0.484942  4.718965
H  5.737428  -0.749023  3.979542
H  4.106880  -0.714856  4.021343
H  2.017946  -2.856984  2.316729
H  2.532306  -5.110371  3.074232
H  4.687279  -5.836148  3.462200
H  5.250346  -4.546334  2.632862
H  4.342276  -5.672236  1.871730
H  3.607288  -4.506348  5.120102
H  2.432946  -3.447169  4.712392
H  4.000576  -3.066883  4.456643
H  3.001830  -2.736612  -0.484910
H  2.523818  -5.256397  -1.663438
H  3.338853  -2.839418  -2.879074
H  5.208256  -4.142571  -3.633434
H  4.639769  -5.426967  -2.799486
H  5.158021  -4.099125  -2.001722
H  3.105690  -3.967766  -4.960551
H  1.661957  -3.821054  -4.213784
H  2.450854  -5.248405  -4.187410
H  -1.307259  -3.664356  -2.791012
H  -2.805490  -5.528762  -3.131782
H  -1.727941  -6.522351  -2.411801
H  -1.373006  -5.834787  -3.850316
H  -1.185777  -5.539039  0.189424
H  -2.868035  -4.680768  1.554632
H  -0.239333  -4.245968  2.624327
H  -0.389239  -6.483047  3.400717
H  -0.481563  -6.441532  1.772248
H  -1.838177  -6.643402  2.663197
H  -1.275974  -4.622937  4.742494
H  -2.727713  -4.754904  4.006495
H  -1.943531  -3.322490  4.015512
H  -3.048477  -0.563112  2.562609
H  -4.828053  -1.619266  3.807471
H  -6.990721  -1.552747  2.981064
H  -6.033213  -2.529521  2.093305
H  -6.424515  -1.044284  1.539849
H  -6.059472  0.344963  4.201915
H  -5.404125  1.013925  2.864268
H  -4.452484  0.643772  4.140208
